#p 56

Energy =

0 1
C     0.6390351    0.3531874    0.0000000 
C     1.8305666   -0.2493718    0.0000000 
C    -0.6390351   -0.3531874    0.0000000 
C    -1.8305666    0.2493718    0.0000000 
C    -3.1102817   -0.4620898    0.0000000 
C    -4.2994140    0.1306067    0.0000000 
C     3.1102817    0.4620898    0.0000000 
C     4.2994140   -0.1306067    0.0000000 
H     0.8751494    0.2337840   -0.1322943 
H     0.8751494    0.2337840    0.1322943 
H     0.4175716    0.2084081   -0.1322943 
H     0.4175716    0.2084081    0.1322943 
H     0.6243843    0.6173700   -0.1322943 
H     0.6243843    0.6173700    0.1322943 
H     1.5944523   -0.1299685   -0.1322943 
H     1.5944523   -0.1299685    0.1322943 
H     2.0520301   -0.1045925   -0.1322943 
H     2.0520301   -0.1045925    0.1322943 
H     1.8452174   -0.5135545   -0.1322943 
H     1.8452174   -0.5135545    0.1322943 
H    -0.8751494   -0.2337840   -0.1322943 
H    -0.8751494   -0.2337840    0.1322943 
H    -0.4175716   -0.2084081   -0.1322943 
H    -0.4175716   -0.2084081    0.1322943 
H    -0.6243843   -0.6173700   -0.1322943 
H    -0.6243843   -0.6173700    0.1322943 
H    -1.5944523    0.1299685   -0.1322943 
H    -1.5944523    0.1299685    0.1322943 
H    -2.0520301    0.1045925   -0.1322943 
H    -2.0520301    0.1045925    0.1322943 
H    -1.8452174    0.5135545   -0.1322943 
H    -1.8452174    0.5135545    0.1322943 
H    -3.3470857   -0.3440601   -0.1322943 
H    -3.3470857   -0.3440601    0.1322943 
H    -2.8896630   -0.3160264   -0.1322943 
H    -2.8896630   -0.3160264    0.1322943 
H    -3.0940964   -0.7261829   -0.1322943 
H    -3.0940964   -0.7261829    0.1322943 
H    -4.0626101    0.0125771   -0.1322943 
H    -4.0626101    0.0125771    0.1322943 
H    -4.5200327   -0.0154567   -0.1322943 
H    -4.5200327   -0.0154567    0.1322943 
H    -4.3155993    0.3946998   -0.1322943 
H    -4.3155993    0.3946998    0.1322943 
H     3.3470857    0.3440601   -0.1322943 
H     3.3470857    0.3440601    0.1322943 
H     2.8896630    0.3160264   -0.1322943 
H     2.8896630    0.3160264    0.1322943 
H     3.0940964    0.7261829   -0.1322943 
H     3.0940964    0.7261829    0.1322943 
H     4.0626101   -0.0125771   -0.1322943 
H     4.0626101   -0.0125771    0.1322943 
H     4.5200327    0.0154567   -0.1322943 
H     4.5200327    0.0154567    0.1322943 
H     4.3155993   -0.3946998   -0.1322943 
H     4.3155993   -0.3946998    0.1322943
 
